Version 4.1
SHEET 1 2684 680
WIRE 176 -144 -160 -144
WIRE 432 -144 176 -144
WIRE 176 -96 176 -144
WIRE 288 -96 176 -96
WIRE 432 -96 432 -144
WIRE 432 -96 336 -96
WIRE 176 -80 176 -96
WIRE 432 -80 432 -96
WIRE 288 -64 288 -96
WIRE 336 -64 336 -96
WIRE 128 0 -64 0
WIRE 608 0 480 0
WIRE 176 32 176 16
WIRE 288 32 288 0
WIRE 288 32 176 32
WIRE 336 32 336 0
WIRE 432 32 432 16
WIRE 432 32 336 32
WIRE 176 64 176 32
WIRE 256 64 176 64
WIRE 432 64 432 32
WIRE 432 64 336 64
WIRE 176 96 176 64
WIRE 288 96 176 96
WIRE 432 96 432 64
WIRE 432 96 336 96
WIRE -80 112 -160 112
WIRE -64 112 -64 0
WIRE -64 112 -80 112
WIRE 176 112 176 96
WIRE 432 112 432 96
WIRE 288 128 288 96
WIRE 336 128 336 96
WIRE 128 192 -32 192
WIRE 544 192 480 192
WIRE 176 224 176 208
WIRE 288 224 288 192
WIRE 288 224 176 224
WIRE 336 224 336 192
WIRE 432 224 432 208
WIRE 432 224 336 224
WIRE -32 240 -32 192
WIRE -32 240 -160 240
WIRE 176 288 176 224
WIRE 304 288 176 288
WIRE 432 288 432 224
WIRE 432 288 304 288
WIRE 304 336 304 288
WIRE -32 384 -32 240
WIRE 608 384 608 0
WIRE 608 384 -32 384
WIRE -80 400 -80 112
WIRE 544 400 544 192
WIRE 544 400 -80 400
FLAG 304 336 0
FLAG -240 112 0
FLAG -240 -144 0
FLAG -240 240 0
SYMBOL nmos 128 112 R0
SYMATTR InstName M1
SYMATTR Value IRFZ44V
SYMBOL nmos 480 112 M0
SYMATTR InstName M2
SYMATTR Value IRFZ44V
SYMBOL nmos 128 -80 R0
SYMATTR InstName X3
SYMATTR Value IRFZ44V
SYMBOL nmos 480 -80 M0
SYMATTR InstName X4
SYMATTR Value IRFZ44V
SYMBOL voltage -144 -144 R90
WINDOW 0 -32 56 VBottom 2
WINDOW 3 32 56 VTop 2
WINDOW 123 0 0 Left 0
WINDOW 39 0 0 Left 0
SYMATTR InstName V1
SYMATTR Value 12
SYMBOL voltage -144 112 R90
WINDOW 0 -32 56 VBottom 2
WINDOW 3 32 56 VTop 2
WINDOW 123 0 0 Left 0
WINDOW 39 0 0 Left 0
SYMATTR InstName V2
SYMATTR Value PULSE(0 5 0 0.001 0.001 1 5)
SYMBOL ind 352 48 R90
WINDOW 0 5 56 VBottom 2
WINDOW 3 32 56 VTop 2
SYMATTR InstName L1
SYMATTR Value 10m
SYMBOL diode 304 0 R180
WINDOW 0 24 64 Left 2
WINDOW 3 24 0 Left 2
SYMATTR InstName D1
SYMATTR Value 1N4148
SYMBOL diode 304 192 R180
WINDOW 0 24 64 Left 2
WINDOW 3 24 0 Left 2
SYMATTR InstName D2
SYMATTR Value 1N4148
SYMBOL diode 352 192 R180
WINDOW 0 24 64 Left 2
WINDOW 3 24 0 Left 2
SYMATTR InstName D3
SYMATTR Value 1N4148
SYMBOL diode 352 0 R180
WINDOW 0 24 64 Left 2
WINDOW 3 24 0 Left 2
SYMATTR InstName D4
SYMATTR Value 1N4148
SYMBOL voltage -144 240 R90
WINDOW 0 -32 56 VBottom 2
WINDOW 3 32 56 VTop 2
WINDOW 123 0 0 Left 0
WINDOW 39 0 0 Left 0
SYMATTR InstName V3
SYMATTR Value PULSE(5 0 0 0.001 0.001 1 5)
TEXT -256 408 Left 2 !.tran 0 10 0 100
TEXT 832 -16 Left 2 ;Bruger IRFZ44 i stedet for IRLU024NPbF, fordi det passer nogenlunde\nmed hinanden og IRLU024NPbF ikke var i LTSpice og svær at importe
