Version 4.1
SHEET 1 2684 680
WIRE 672 -272 -64 -272
WIRE 288 -96 48 -96
WIRE 336 -96 336 -144
WIRE 336 -96 288 -96
WIRE 416 -96 336 -96
WIRE 544 -96 416 -96
WIRE 48 -80 48 -96
WIRE 544 -80 544 -96
WIRE 288 -64 288 -96
WIRE 416 -64 416 -96
WIRE -64 0 -64 -272
WIRE 0 0 -64 0
WIRE 720 0 592 0
WIRE 48 64 48 16
WIRE 288 64 288 0
WIRE 288 64 48 64
WIRE 304 64 288 64
WIRE 416 64 416 0
WIRE 416 64 384 64
WIRE 544 64 544 16
WIRE 544 64 416 64
WIRE -304 112 -384 112
WIRE -144 112 -224 112
WIRE -64 112 -64 0
WIRE -64 112 -144 112
WIRE 48 112 48 64
WIRE 544 112 544 64
WIRE 288 128 288 64
WIRE 416 128 416 64
WIRE 0 192 -32 192
WIRE 672 192 672 -272
WIRE 672 192 592 192
WIRE 48 224 48 208
WIRE 288 224 288 192
WIRE 288 224 48 224
WIRE 416 224 416 192
WIRE 544 224 544 208
WIRE 544 224 416 224
WIRE -304 240 -384 240
WIRE -144 240 -224 240
WIRE -32 240 -32 192
WIRE -32 240 -144 240
WIRE 48 288 48 224
WIRE 336 288 48 288
WIRE 544 288 544 224
WIRE 544 288 336 288
WIRE 336 336 336 288
WIRE -32 384 -32 240
WIRE 720 384 720 0
WIRE 720 384 -32 384
FLAG 336 336 0
FLAG -464 112 0
FLAG 336 -224 0
FLAG -464 240 0
FLAG -144 192 0
FLAG -144 320 0
SYMBOL nmos 0 112 R0
SYMATTR InstName M1
SYMATTR Value IRFZ44V
SYMBOL nmos 592 112 M0
SYMATTR InstName M2
SYMATTR Value IRFZ44V
SYMBOL nmos 0 -80 R0
SYMATTR InstName X3
SYMATTR Value IRFZ44V
SYMBOL nmos 592 -80 M0
SYMATTR InstName X4
SYMATTR Value IRFZ44V
SYMBOL voltage 336 -128 R180
WINDOW 0 -32 56 VBottom 2
WINDOW 3 32 56 VTop 2
WINDOW 123 0 0 Left 0
WINDOW 39 0 0 Left 0
SYMATTR InstName V1
SYMATTR Value 12
SYMBOL voltage -368 112 R90
WINDOW 0 -32 56 VBottom 2
WINDOW 3 32 56 VTop 2
WINDOW 123 0 0 Left 0
WINDOW 39 0 0 Left 0
SYMATTR InstName V2
SYMATTR Value PULSE(0 5 0 0.001 0.001 1 5)
SYMBOL ind 400 48 R90
WINDOW 0 5 56 VBottom 2
WINDOW 3 32 56 VTop 2
SYMATTR InstName L1
SYMATTR Value 10m
SYMBOL diode 304 0 R180
WINDOW 0 24 64 Left 2
WINDOW 3 24 0 Left 2
SYMATTR InstName D1
SYMATTR Value 1N4148
SYMBOL diode 304 192 R180
WINDOW 0 24 64 Left 2
WINDOW 3 24 0 Left 2
SYMATTR InstName D2
SYMATTR Value 1N4148
SYMBOL diode 432 192 R180
WINDOW 0 24 64 Left 2
WINDOW 3 24 0 Left 2
SYMATTR InstName D3
SYMATTR Value 1N4148
SYMBOL diode 432 0 R180
WINDOW 0 24 64 Left 2
WINDOW 3 24 0 Left 2
SYMATTR InstName D4
SYMATTR Value 1N4148
SYMBOL voltage -368 240 R90
WINDOW 0 -32 56 VBottom 2
WINDOW 3 32 56 VTop 2
WINDOW 123 0 0 Left 0
WINDOW 39 0 0 Left 0
SYMATTR InstName V3
SYMATTR Value PULSE(5 0 0 0.001 0.001 1 5)
SYMBOL res -208 96 R90
WINDOW 0 0 56 VBottom 2
WINDOW 3 32 56 VTop 2
SYMATTR InstName R1
SYMATTR Value 100
SYMBOL res -208 224 R90
WINDOW 0 0 56 VBottom 2
WINDOW 3 32 56 VTop 2
SYMATTR InstName R2
SYMATTR Value 100
SYMBOL res -128 208 R180
WINDOW 0 36 76 Left 2
WINDOW 3 36 40 Left 2
SYMATTR InstName R3
SYMATTR Value 10k
SYMBOL res -128 336 R180
WINDOW 0 36 76 Left 2
WINDOW 3 36 40 Left 2
SYMATTR InstName R4
SYMATTR Value 10k
TEXT -256 408 Left 2 !.tran 0 10 0 100
TEXT 832 -16 Left 2 ;Bruger IRFZ44 i stedet for IRLU024NPbF, fordi det passer nogenlunde\nmed hinanden og IRLU024NPbF ikke var i LTSpice og svær at importe
